/*--------------------------------*- C++ -*----------------------------------*\
| =========                 |                                                 |
| \\      /  F ield         | OpenFOAM: The Open Source CFD Toolbox           |
|  \\    /   O peration     | Version:  v2006                                 |
|   \\  /    A nd           | Website:  www.openfoam.com                      |
|    \\/     M anipulation  |                                                 |
\*---------------------------------------------------------------------------*/
FoamFile
{
    version     2.0;
    format      ascii;
    class       dictionary;
    location    "system";
    object      controlDict;
}
// * * * * * * * * * * * * * * * * * * * * * * * * * * * * * * * * * * * * * //

application     pimpleFoam;

startFrom       startTime;

startTime       0;

stopAt          endTime;

endTime         5;

deltaT          1e-5;

writeControl    adjustable;

writeInterval   1e-2;

purgeWrite      0;

writeFormat     ascii;

writePrecision  10;

writeCompression off;

timeFormat      general;

timePrecision   6;

runTimeModifiable true;

adjustTimeStep  yes;

maxCo           0.9;

functions
{
	forces
	{
    		type          forceCoeffs;
    		libs          ("libforces.so");
    		patches       (wing);	
     		rho           rhoInf;     
     		rhoInf        1;          
     		CofR          (0 0 0);    
     		liftDir       (0 1 0);
     		dragDir       (1 0 0);
		pitchAxis     (0 0 1);
     		magUInf       1;
     		lRef          1;
     		Aref          1;
	} 
  sixDoFRigidBodyState
    {
        type           sixDoFRigidBodyState;
        libs           (sixDoFRigidBodyState);
    }


}

// ************************************************************************* //
