/*--------------------------------*- C++ -*----------------------------------*\
| =========                 |                                                 |
| \\      /  F ield         | OpenFOAM: The Open Source CFD Toolbox           |
|  \\    /   O peration     | Version:  v2012                                 |
|   \\  /    A nd           | Website:  www.openfoam.com                      |
|    \\/     M anipulation  |                                                 |
\*---------------------------------------------------------------------------*/
FoamFile
{
    version     2.0;
    format      ascii;
    class       polyBoundaryMesh;
    location    "constant/polyMesh";
    object      boundary;
}
// * * * * * * * * * * * * * * * * * * * * * * * * * * * * * * * * * * * * * //

8
(
    topAndBottom
    {
        type            patch;
        nFaces          24;
        startFace       5975;
    }
    inlet
    {
        type            patch;
        nFaces          0;
        startFace       5999;
    }
    outlet
    {
        type            patch;
        nFaces          32;
        startFace       5999;
    }
    wing
    {
        type            wall;
        inGroups        1(wall);
        nFaces          13;
        startFace       6031;
    }
    front
    {
        type            empty;
        inGroups        1(empty);
        nFaces          3019;
        startFace       6044;
    }
    back
    {
        type            empty;
        inGroups        1(empty);
        nFaces          3019;
        startFace       9063;
    }
    procBoundary3to1
    {
        type            processor;
        inGroups        1(processor);
        nFaces          136;
        startFace       12082;
        matchTolerance  0.0001;
        transform       unknown;
        myProcNo        3;
        neighbProcNo    1;
    }
    procBoundary3to2
    {
        type            processor;
        inGroups        1(processor);
        nFaces          51;
        startFace       12218;
        matchTolerance  0.0001;
        transform       unknown;
        myProcNo        3;
        neighbProcNo    2;
    }
)

// ************************************************************************* //
